Version 4
SHEET 1 880 680
WIRE -688 128 -816 128
WIRE -352 128 -560 128
WIRE -224 128 -224 48
WIRE -688 160 -704 160
WIRE -528 160 -560 160
WIRE -352 160 -416 160
WIRE -224 176 -224 160
WIRE 16 176 -224 176
WIRE 352 176 240 176
WIRE 16 192 -80 192
WIRE 240 192 240 176
WIRE 240 192 80 192
WIRE -80 208 -80 192
WIRE -80 208 -160 208
WIRE -816 256 -816 128
WIRE -704 256 -704 160
WIRE -416 256 -416 160
WIRE -416 256 -592 256
WIRE -528 304 -528 160
WIRE -160 304 -160 208
WIRE -160 304 -528 304
FLAG 352 176 Final_Borrow
IOPIN 352 176 Out
FLAG -224 48 Final_Diff
IOPIN -224 48 Out
FLAG -816 256 VA
IOPIN -816 256 In
FLAG -704 256 VB
IOPIN -704 256 In
FLAG -592 256 VC
IOPIN -592 256 In
SYMBOL HS -592 144 R0
SYMATTR InstName X1
SYMBOL HS -256 144 R0
SYMATTR InstName X2
SYMBOL Digital\\or 48 144 R0
SYMATTR InstName A1
