Version 4
SHEET 1 880 680
WIRE -560 -784 -688 -784
WIRE -224 -784 -432 -784
WIRE -96 -784 -96 -864
WIRE -560 -752 -576 -752
WIRE -400 -752 -432 -752
WIRE -224 -752 -288 -752
WIRE -96 -736 -96 -752
WIRE 144 -736 -96 -736
WIRE 480 -736 368 -736
WIRE 144 -720 48 -720
WIRE 368 -720 368 -736
WIRE 368 -720 208 -720
WIRE 48 -704 48 -720
WIRE 48 -704 -32 -704
WIRE -688 -656 -688 -784
WIRE -576 -656 -576 -752
WIRE -288 -656 -288 -752
WIRE -288 -656 -464 -656
WIRE -400 -608 -400 -752
WIRE -32 -608 -32 -704
WIRE -32 -608 -400 -608
FLAG 480 -736 Final_Borrow
IOPIN 480 -736 Out
FLAG -96 -864 Final_Diff
IOPIN -96 -864 Out
FLAG -464 -576 0
FLAG -576 -576 0
FLAG -688 -576 0
SYMBOL HS -464 -768 R0
SYMATTR InstName X1
SYMBOL HS -128 -768 R0
SYMATTR InstName X2
SYMBOL Digital\\or 176 -768 R0
SYMATTR InstName A1
SYMBOL voltage -688 -672 R0
WINDOW 3 -228 -124 Left 2
WINDOW 123 0 0 Left 0
WINDOW 39 0 0 Left 0
SYMATTR InstName V1
SYMATTR Value PULSE(0 5 0 1n 1n 2 4)
SYMBOL voltage -576 -672 R0
WINDOW 3 -8 104 VRight 2
WINDOW 123 0 0 Left 0
WINDOW 39 0 0 Left 0
SYMATTR InstName V2
SYMATTR Value PULSE(0 5 0.5 1n 1n 2 4)
SYMBOL voltage -464 -672 R0
WINDOW 123 0 0 Left 0
WINDOW 39 0 0 Left 0
SYMATTR InstName V3
SYMATTR Value PULSE(0 5 1 1n 1n 2 4)
TEXT -918 -272 Left 2 !.tran 20
